/*--------------------------------*- C++ -*----------------------------------*\
| =========                 |                                                 |
| \\      /  F ield         | OpenFOAM: The Open Source CFD Toolbox           |
|  \\    /   O peration     | Version:  v2112                                 |
|   \\  /    A nd           | Website:  www.openfoam.com                      |
|    \\/     M anipulation  |                                                 |
\*---------------------------------------------------------------------------*/
FoamFile
{
    version     2.0;
    format      ascii;
    class       volScalarField;
    object      T;
}
// * * * * * * * * * * * * * * * * * * * * * * * * * * * * * * * * * * * * * //

dimensions      [0 0 0 1 0 0 0];

internalField   uniform 0;

boundaryField
{
    left
    {
        type            fixedValue;
        value           uniform 0;
    }
    
    right
    {
	type            zeroGradient;
        //type            zeroGradient;
        //type            fixedValue;
        //value           uniform 1;
    }

    upper
    {
        type            zeroGradient;
    }

    lower
    {
        type            fixedValue;
        value           uniform 0;
    }

    sides
    {
        type            empty;
    }
}


// ************************************************************************* //
