/*--------------------------------*- C++ -*----------------------------------*\
| =========                 |                                                 |
| \\      /  F ield         | OpenFOAM: The Open Source CFD Toolbox           |
|  \\    /   O peration     | Version:  v2112                                 |
|   \\  /    A nd           | Website:  www.openfoam.com                      |
|    \\/     M anipulation  |                                                 |
\*---------------------------------------------------------------------------*/
FoamFile
{
    version     2.0;
    format      ascii;
    class       volVectorField;
    object      U;
}
// * * * * * * * * * * * * * * * * * * * * * * * * * * * * * * * * * * * * * //

dimensions      [0 1 -1 0 0 0 0];

internalField   uniform (1 0 0);

boundaryField
{
    left
    {
        type            fixedValue;
        value           $internalField;
    }

    right
    {
        //type            inletOutlet;
        //value           $internalField;
        //inletValue      $internalField;
        type            fixedValue;
        value           $internalField;
    }

    upper
    {
        type            fixedValue;
        value           $internalField;
    }

    lower
    {
        type            fixedValue;
        value           $internalField;
    }

    sides
    {
        type            empty;
    }
}


// ************************************************************************* //
