/*--------------------------------*- C++ -*----------------------------------*\
| =========                 |                                                 |
| \\      /  F ield         | OpenFOAM: The Open Source CFD Toolbox           |
|  \\    /   O peration     | Version:  2112                                  |
|   \\  /    A nd           | Website:  www.openfoam.com                      |
|    \\/     M anipulation  |                                                 |
\*---------------------------------------------------------------------------*/
FoamFile
{
    version     2.0;
    format      ascii;
    arch        "LSB;label=64;scalar=64";
    class       polyBoundaryMesh;
    location    "constant/polyMesh";
    object      boundary;
}
// * * * * * * * * * * * * * * * * * * * * * * * * * * * * * * * * * * * * * //

5
(
    left
    {
        type            patch;
        nFaces          50;
        startFace       4900;
    }
    right
    {
        type            patch;
        nFaces          50;
        startFace       4950;
    }
    upper
    {
        type            patch;
        nFaces          50;
        startFace       5000;
    }
    lower
    {
        type            patch;
        nFaces          50;
        startFace       5050;
    }
    sides
    {
        type            empty;
        inGroups        1(empty);
        nFaces          5000;
        startFace       5100;
    }
)

// ************************************************************************* //
